Version 4
SHEET 1 880 680
WIRE -64 -112 -96 -112
WIRE -64 -80 -96 -80
WIRE 448 -64 336 -64
WIRE -64 -48 -96 -48
WIRE 96 -48 80 -48
WIRE 160 -48 96 -48
WIRE -64 -16 -96 -16
WIRE -80 16 -96 16
WIRE -64 16 -80 16
WIRE -80 80 -80 16
WIRE 128 80 -80 80
WIRE 512 80 480 80
WIRE 304 96 224 96
WIRE 96 112 96 -48
WIRE 128 112 96 112
FLAG 160 -80 En1
IOPIN 160 -80 In
FLAG 304 64 En2
IOPIN 304 64 In
FLAG 448 -64 O1
IOPIN 448 -64 Out
FLAG 512 80 O2
IOPIN 512 80 Out
FLAG -96 -112 A
IOPIN -96 -112 In
FLAG -96 -80 B
IOPIN -96 -80 In
FLAG -96 -48 C
IOPIN -96 -48 In
FLAG -96 -16 D
IOPIN -96 -16 In
FLAG -96 16 E
IOPIN -96 16 In
SYMBOL F2 176 96 R0
SYMATTR InstName F2
SYMBOL f1 0 -48 R0
SYMATTR InstName F1
SYMBOL Tri-State 240 -64 R0
SYMATTR InstName Tri-State1
SYMBOL Tri-State 384 80 R0
SYMATTR InstName X2
