Version 4
SHEET 1 1348 680
WIRE 736 -128 688 -128
WIRE 304 -96 272 -96
WIRE 416 16 416 0
WIRE 416 16 368 16
WIRE 416 48 416 16
WIRE 736 64 720 64
WIRE 48 80 -48 80
WIRE 304 96 288 96
WIRE 368 96 368 16
WIRE 368 96 304 96
WIRE 48 112 -48 112
WIRE 304 128 288 128
WIRE 368 128 304 128
WIRE 48 144 -48 144
WIRE 48 176 -48 176
WIRE 48 208 -48 208
WIRE 624 288 560 288
WIRE 176 304 176 256
WIRE 240 304 240 256
WIRE 368 320 368 128
WIRE 416 320 416 304
WIRE 416 320 368 320
WIRE 416 352 416 320
FLAG 544 176 0
FLAG 624 176 VDD
FLAG 304 96 Res1
FLAG 304 128 Res2
FLAG 304 -96 ResF1
FLAG 736 -128 ResF2
FLAG 736 64 Res3St
FLAG 544 48 0
FLAG 544 80 0
FLAG 592 -112 ResF1
FLAG 416 -80 VDD
FLAG 416 128 0
FLAG 416 224 VDD
FLAG 416 432 0
FLAG 176 304 VDD
FLAG 240 304 VDD
FLAG 560 288 0
FLAG 624 288 Ground
FLAG 128 -160 A
FLAG 128 -128 B
FLAG 128 -96 C
FLAG 128 -64 D
FLAG 128 -32 E
FLAG 128 96 A
FLAG 128 128 B
FLAG 128 160 C
FLAG 128 192 D
FLAG 128 224 E
FLAG 592 -144 E
FLAG 48 112 B
FLAG 48 208 E
FLAG 48 80 A
FLAG 48 144 C
FLAG 48 176 D
FLAG -48 80 Ground
FLAG -48 144 Ground
FLAG -48 176 Ground
FLAG -48 112 VDD
FLAG -48 208 VDD
SYMBOL voltage 640 176 R90
WINDOW 0 -32 56 VBottom 2
WINDOW 3 32 56 VTop 2
SYMATTR InstName V1
SYMATTR Value 5V
SYMBOL f1 192 -96 R0
SYMATTR InstName F1
SYMBOL Tri-State 624 64 R0
WINDOW 0 8 -40 Bottom 2
SYMATTR InstName Tri-state
SYMBOL F2 640 -128 R0
SYMATTR InstName F2
SYMBOL Circuito 176 192 R0
SYMATTR InstName Circuito
SYMBOL res 400 -96 R0
SYMATTR InstName R1
SYMATTR Value 1e6
SYMBOL res 400 32 R0
SYMATTR InstName R2
SYMATTR Value 1e6
SYMBOL res 400 208 R0
SYMATTR InstName R3
SYMATTR Value 1e6
SYMBOL res 400 336 R0
SYMATTR InstName R4
SYMATTR Value 1e6
TEXT 656 216 Left 2 !.tran 1s
TEXT -128 -144 Left 2 ;Exemplo
TEXT -120 -104 Left 2 ;A = 0
TEXT -120 -72 Left 2 ;B = 1
TEXT -120 -40 Left 2 ;C = 0
TEXT -120 -8 Left 2 ;D = 0
TEXT -120 24 Left 2 ;E = 1
