Version 4
SHEET 1 1624 1960
WIRE -768 -192 -768 -240
WIRE -768 -192 -1040 -192
WIRE -512 -192 -768 -192
WIRE -512 -128 -512 -192
WIRE -512 -128 -656 -128
WIRE -400 -128 -512 -128
WIRE -656 -112 -656 -128
WIRE -896 -48 -960 -48
WIRE -768 -48 -784 -48
WIRE -400 -48 -400 -128
WIRE -656 32 -656 16
WIRE -1040 176 -1040 -192
WIRE -656 240 -656 160
WIRE -512 240 -656 240
WIRE -400 240 -400 80
WIRE -400 240 -512 240
WIRE -512 288 -512 240
WIRE -1040 448 -1040 304
WIRE -768 448 -1040 448
WIRE -512 448 -512 416
WIRE -512 448 -768 448
WIRE -768 704 -768 448
WIRE -192 704 -768 704
WIRE -768 912 -768 704
WIRE -768 1296 -768 1040
WIRE -768 1296 -1104 1296
WIRE -400 1296 -768 1296
WIRE -400 1424 -400 1296
WIRE -400 1424 -608 1424
WIRE -176 1424 -400 1424
WIRE -1104 1456 -1104 1296
WIRE -608 1472 -608 1424
WIRE -176 1472 -176 1424
WIRE -848 1536 -912 1536
WIRE -720 1536 -736 1536
WIRE -608 1632 -608 1600
WIRE -384 1632 -608 1632
WIRE -176 1632 -176 1600
WIRE -176 1632 -384 1632
WIRE -1104 1808 -1104 1584
WIRE -752 1808 -1104 1808
WIRE -384 1808 -384 1760
WIRE -384 1808 -752 1808
WIRE -752 1920 -752 1808
FLAG -960 -48 B
IOPIN -960 -48 In
FLAG -768 -320 0
FLAG -1152 240 A
IOPIN -1152 240 In
FLAG -768 96 C
IOPIN -768 96 In
FLAG -512 16 D
IOPIN -512 16 In
FLAG -624 352 E
IOPIN -624 352 In
FLAG -880 976 A
IOPIN -880 976 In
FLAG -1216 1520 E
IOPIN -1216 1520 In
FLAG -288 1536 C
IOPIN -288 1536 In
FLAG -496 1696 D
IOPIN -496 1696 In
FLAG -752 1920 0
FLAG -192 704 F1_Res
IOPIN -192 704 Out
FLAG -912 1536 B
IOPIN -912 1536 In
SYMBOL voltage -768 -224 R180
WINDOW 0 24 96 Left 2
WINDOW 3 24 16 Left 2
SYMATTR InstName V1
SYMATTR Value 5V
SYMBOL PMOSX -1072 224 R0
SYMATTR InstName MP1
SYMBOL PMOSX -688 -64 R0
SYMATTR InstName MP2
SYMBOL PMOSX -688 80 R0
SYMATTR InstName MP3
SYMBOL PMOSX -432 0 R0
SYMATTR InstName MP4
SYMBOL PMOSX -544 336 R0
SYMATTR InstName MP5
SYMBOL NMOSX -800 960 R0
SYMATTR InstName MN1
SYMBOL NMOSX -640 1520 R0
SYMATTR InstName MN2
SYMBOL NMOSX -208 1520 R0
SYMATTR InstName MN3
SYMBOL NMOSX -416 1680 R0
SYMATTR InstName MN4
SYMBOL NMOSX -1136 1504 R0
SYMATTR InstName MN5
SYMBOL not -848 -48 R0
SYMATTR InstName NOT
SYMBOL not -800 1536 R0
SYMATTR InstName NOT1
TEXT -552 -344 Left 2 ;F1
