Version 4
SHEET 1 1624 1960
WIRE -768 32 -768 -16
WIRE -768 32 -1040 32
WIRE -512 32 -768 32
WIRE -512 96 -512 32
WIRE -512 96 -656 96
WIRE -400 96 -512 96
WIRE -656 112 -656 96
WIRE -400 176 -400 96
WIRE -1040 256 -1040 32
WIRE -656 256 -656 240
WIRE -656 400 -656 384
WIRE -512 400 -656 400
WIRE -400 400 -400 304
WIRE -400 400 -512 400
WIRE -512 448 -512 400
WIRE -1040 608 -1040 384
WIRE -768 608 -1040 608
WIRE -512 608 -512 576
WIRE -512 608 -768 608
WIRE -768 704 -768 608
WIRE -192 704 -768 704
WIRE -768 752 -768 704
WIRE -1600 768 -1664 768
WIRE -1440 768 -1488 768
WIRE -768 928 -768 880
WIRE -768 928 -1104 928
WIRE -400 928 -768 928
WIRE -400 960 -400 928
WIRE -400 960 -608 960
WIRE -176 960 -400 960
WIRE -608 1008 -608 960
WIRE -176 1008 -176 960
WIRE -1104 1040 -1104 928
WIRE -608 1168 -608 1136
WIRE -384 1168 -608 1168
WIRE -176 1168 -176 1136
WIRE -176 1168 -384 1168
WIRE -1104 1312 -1104 1168
WIRE -752 1312 -1104 1312
WIRE -384 1312 -384 1296
WIRE -384 1312 -752 1312
WIRE -752 1424 -752 1312
FLAG -1664 768 B
IOPIN -1664 768 In
FLAG -1152 320 A
IOPIN -1152 320 In
FLAG -768 320 C
IOPIN -768 320 In
FLAG -512 240 D
IOPIN -512 240 In
FLAG -624 512 E
IOPIN -624 512 In
FLAG -880 816 A
IOPIN -880 816 In
FLAG -1216 1104 E
IOPIN -1216 1104 In
FLAG -288 1072 C
IOPIN -288 1072 In
FLAG -496 1232 D
IOPIN -496 1232 In
FLAG -752 1424 0
FLAG -192 704 F1_Res
IOPIN -192 704 Out
FLAG -768 -16 VDD
FLAG -1440 768 _B
FLAG -768 176 _B
FLAG -720 1072 _B
SYMBOL PMOSX -1072 304 R0
SYMATTR InstName MP1
SYMBOL PMOSX -688 160 R0
SYMATTR InstName MP2
SYMBOL PMOSX -688 304 R0
SYMATTR InstName MP3
SYMBOL PMOSX -432 224 R0
SYMATTR InstName MP4
SYMBOL PMOSX -544 496 R0
SYMATTR InstName MP5
SYMBOL NMOSX -800 800 R0
SYMATTR InstName MN1
SYMBOL NMOSX -640 1056 R0
SYMATTR InstName MN2
SYMBOL NMOSX -208 1056 R0
SYMATTR InstName MN3
SYMBOL NMOSX -416 1216 R0
SYMATTR InstName MN4
SYMBOL NMOSX -1136 1088 R0
SYMATTR InstName MN5
SYMBOL not -1552 768 R0
SYMATTR InstName NOT
