Version 4
SHEET 1 1624 1960
WIRE -768 -64 -768 -112
WIRE -768 -64 -992 -64
WIRE -512 -64 -768 -64
WIRE -512 0 -512 -64
WIRE -512 0 -656 0
WIRE -304 0 -512 0
WIRE -656 16 -656 0
WIRE -48 48 -48 -16
WIRE -304 144 -304 0
WIRE -992 176 -992 -64
WIRE -48 208 -48 160
WIRE -656 288 -656 144
WIRE -656 432 -656 416
WIRE -416 432 -656 432
WIRE -304 432 -304 272
WIRE -304 432 -416 432
WIRE -416 464 -416 432
WIRE -992 608 -992 304
WIRE -768 608 -992 608
WIRE -416 608 -416 592
WIRE -416 608 -768 608
WIRE -768 704 -768 608
WIRE -368 704 -768 704
WIRE -768 752 -768 704
WIRE -768 928 -768 880
WIRE -768 928 -912 928
WIRE -512 928 -768 928
WIRE -512 960 -512 928
WIRE -512 960 -624 960
WIRE -400 960 -512 960
WIRE -624 992 -624 960
WIRE -400 992 -400 960
WIRE -912 1040 -912 928
WIRE -624 1168 -624 1120
WIRE -512 1168 -624 1168
WIRE -400 1168 -400 1120
WIRE -400 1168 -512 1168
WIRE -912 1312 -912 1168
WIRE -768 1312 -912 1312
WIRE -512 1312 -512 1296
WIRE -512 1312 -768 1312
WIRE -768 1344 -768 1312
FLAG -48 -16 B
IOPIN -48 -16 In
FLAG -1104 240 A
IOPIN -1104 240 In
FLAG -768 352 C
IOPIN -768 352 In
FLAG -416 208 D
IOPIN -416 208 In
FLAG -528 528 E
IOPIN -528 528 In
FLAG -880 816 A
IOPIN -880 816 In
FLAG -1024 1104 E
IOPIN -1024 1104 In
FLAG -512 1056 C
IOPIN -512 1056 In
FLAG -624 1232 D
IOPIN -624 1232 In
FLAG -768 1344 0
FLAG -368 704 F1_Res
IOPIN -368 704 Out
FLAG -768 -112 VDD
FLAG -48 208 _B
FLAG -768 80 _B
FLAG -736 1056 _B
SYMBOL PMOSX -1024 224 R0
SYMATTR InstName MP1
SYMBOL PMOSX -688 64 R0
SYMATTR InstName MP2
SYMBOL PMOSX -688 336 R0
SYMATTR InstName MP3
SYMBOL PMOSX -336 192 R0
SYMATTR InstName MP4
SYMBOL PMOSX -448 512 R0
SYMATTR InstName MP5
SYMBOL NMOSX -800 800 R0
SYMATTR InstName MN1
SYMBOL NMOSX -656 1040 R0
SYMATTR InstName MN2
SYMBOL NMOSX -432 1040 R0
SYMATTR InstName MN3
SYMBOL NMOSX -544 1216 R0
SYMATTR InstName MN4
SYMBOL NMOSX -944 1088 R0
SYMATTR InstName MN5
SYMBOL not -48 96 R90
SYMATTR InstName NOT
