Version 4
SHEET 1 936 680
WIRE 416 144 368 144
WIRE 560 160 512 160
WIRE 416 176 368 176
FLAG 368 176 E
IOPIN 368 176 In
FLAG 560 160 R2
IOPIN 560 160 Out
FLAG 368 144 F1
IOPIN 368 144 In
SYMBOL XOR 464 160 R0
SYMATTR InstName XOR
