Version 4
SHEET 1 880 680
WIRE -368 144 -384 144
WIRE -352 144 -368 144
WIRE -160 144 -176 144
WIRE -64 144 -160 144
WIRE 144 144 48 144
WIRE -368 176 -368 144
WIRE -176 192 -176 144
WIRE 144 192 144 144
WIRE -368 272 -368 256
WIRE -176 288 -176 272
WIRE 144 288 144 256
FLAG -368 272 0
FLAG -368 144 VDD
FLAG -176 288 0
FLAG -160 144 in
FLAG 144 144 out
FLAG 144 288 0
SYMBOL voltage -368 160 R0
SYMATTR InstName VDC
SYMATTR Value {VDD}
SYMBOL voltage -176 176 R0
WINDOW 123 0 0 Left 2
WINDOW 39 0 0 Left 2
WINDOW 3 -148 152 Left 2
SYMATTR InstName Vin
SYMATTR Value PULSE(0 {VDD} 0 10f 10f 5n 10n)
SYMBOL cap 128 192 R0
SYMATTR InstName C
SYMATTR Value 1p
SYMBOL not -16 144 R0
SYMATTR InstName NOT
TEXT -384 88 Left 2 !.param VDD=5
TEXT -264 360 Left 2 !.tran 0 20n 10n
