Version 4
SHEET 1 3140 2108
WIRE -32 -560 -32 -608
WIRE -32 -560 -256 -560
WIRE 224 -560 -32 -560
WIRE -1088 -528 -1120 -528
WIRE -688 -528 -720 -528
WIRE -1344 -512 -1376 -512
WIRE 224 -496 224 -560
WIRE 224 -496 80 -496
WIRE 432 -496 224 -496
WIRE 80 -480 80 -496
WIRE -1120 -432 -1120 -528
WIRE -1120 -432 -1152 -432
WIRE -976 -432 -976 -464
WIRE -928 -432 -976 -432
WIRE -720 -432 -720 -528
WIRE -720 -432 -752 -432
WIRE -576 -432 -576 -464
WIRE -528 -432 -576 -432
WIRE 912 -416 896 -416
WIRE 976 -416 912 -416
WIRE -976 -400 -976 -432
WIRE -576 -400 -576 -432
WIRE -1344 -368 -1376 -368
WIRE 432 -352 432 -496
WIRE -1120 -336 -1120 -432
WIRE -1088 -336 -1120 -336
WIRE -720 -336 -720 -432
WIRE -688 -336 -720 -336
WIRE -256 -320 -256 -560
WIRE 80 -288 80 -352
WIRE 976 -288 976 -416
WIRE 1024 -288 976 -288
WIRE 1392 -288 1328 -288
WIRE 1584 -288 1520 -288
WIRE -1344 -240 -1376 -240
WIRE -976 -240 -976 -272
WIRE -576 -240 -576 -272
WIRE 80 -208 80 -288
WIRE 1456 -160 1456 -176
WIRE 912 -128 896 -128
WIRE 976 -128 976 -288
WIRE 976 -128 912 -128
WIRE -1344 -96 -1376 -96
WIRE 80 -64 80 -80
WIRE 320 -64 80 -64
WIRE 432 -64 432 -224
WIRE 432 -64 320 -64
WIRE 320 -32 320 -64
WIRE -1088 0 -1120 0
WIRE -688 0 -720 0
WIRE -1344 32 -1376 32
WIRE -1120 96 -1120 0
WIRE -1120 96 -1152 96
WIRE -976 96 -976 64
WIRE -928 96 -976 96
WIRE -720 96 -720 0
WIRE -720 96 -752 96
WIRE -576 96 -576 64
WIRE -528 96 -576 96
WIRE -256 112 -256 -192
WIRE -32 112 -256 112
WIRE 320 112 320 96
WIRE 320 112 -32 112
WIRE -976 128 -976 96
WIRE -576 128 -576 96
WIRE -1344 176 -1376 176
WIRE -1120 192 -1120 96
WIRE -1088 192 -1120 192
WIRE -720 192 -720 96
WIRE -688 192 -720 192
WIRE -32 208 -32 112
WIRE 368 208 -32 208
WIRE -32 256 -32 208
WIRE -976 288 -976 256
WIRE -576 288 -576 256
WIRE -1344 304 -1376 304
WIRE 1456 336 1456 304
WIRE -32 432 -32 384
WIRE -32 432 -176 432
WIRE 224 432 -32 432
WIRE 1392 448 1328 448
WIRE 1584 448 1520 448
WIRE 224 464 224 432
WIRE 224 464 112 464
WIRE 336 464 224 464
WIRE -1088 496 -1120 496
WIRE -688 496 -720 496
WIRE 112 496 112 464
WIRE 336 496 336 464
WIRE -176 544 -176 432
WIRE 1456 576 1456 560
WIRE -1120 592 -1120 496
WIRE -1120 592 -1152 592
WIRE -976 592 -976 560
WIRE -928 592 -976 592
WIRE -720 592 -720 496
WIRE -720 592 -752 592
WIRE -576 592 -576 560
WIRE -528 592 -576 592
WIRE -976 624 -976 592
WIRE -576 624 -576 592
WIRE 112 672 112 624
WIRE 224 672 112 672
WIRE 336 672 336 624
WIRE 336 672 224 672
WIRE -1120 688 -1120 592
WIRE -1088 688 -1120 688
WIRE -720 688 -720 592
WIRE -688 688 -720 688
WIRE -976 784 -976 752
WIRE -576 784 -576 752
WIRE -176 816 -176 672
WIRE -32 816 -176 816
WIRE 224 816 224 800
WIRE 224 816 -32 816
WIRE -32 848 -32 816
FLAG -368 -256 A
FLAG -32 -144 C
FLAG 320 -288 D
FLAG 208 32 E
FLAG -144 320 A
FLAG -288 608 E
FLAG 224 560 C
FLAG 112 736 D
FLAG -32 848 0
FLAG 368 208 F1_Res
FLAG -32 -608 VDD
FLAG -32 -416 _B
FLAG 0 560 _B
FLAG -1152 -432 B
FLAG -928 -432 _B
FLAG -976 -240 0
FLAG -928 96 _A
FLAG -976 288 0
FLAG -1456 464 0
FLAG -1376 464 VDD
FLAG -976 -592 VDD
FLAG -976 -64 VDD
FLAG -1344 -512 A
FLAG 1328 -288 F1_Res
FLAG 1584 -288 F1
FLAG 1456 576 Enable2
FLAG 1328 448 F2_Res
FLAG 1584 448 F2
FLAG 1456 304 _Enable2
FLAG -752 -432 Enable1
FLAG -528 -432 _Enable1
FLAG -576 -240 0
FLAG -752 96 Enable2
FLAG -528 96 _Enable2
FLAG -576 288 0
FLAG -576 -592 VDD
FLAG -576 -64 VDD
FLAG 1456 -160 Enable1
FLAG 1456 -400 _Enable1
FLAG 80 -288 n1
FLAG -1456 -512 0
FLAG -1344 -368 B
FLAG -1456 -368 0
FLAG -1344 -240 C
FLAG -1456 -240 0
FLAG -1344 -96 D
FLAG -1456 -96 0
FLAG -1344 32 E
FLAG -1456 32 0
FLAG -1344 176 Enable1
FLAG -1456 176 0
FLAG -1344 304 Enable2
FLAG -1456 304 0
FLAG -1152 96 A
FLAG 320 -64 n6
FLAG -32 432 n7
FLAG 224 672 n8
FLAG 1024 -288 F2_Res
FLAG 784 -416 F1_Res
FLAG 784 -128 _F1_Res
FLAG 848 -528 E
FLAG 848 -304 _E
FLAG 848 -240 _E
FLAG 848 -16 E
FLAG -1152 592 E
FLAG -928 592 _E
FLAG -976 784 0
FLAG -976 432 VDD
FLAG -752 592 F1_Res
FLAG -528 592 _F1_Res
FLAG -576 784 0
FLAG -576 432 VDD
SYMBOL PMOSX -288 -272 R0
SYMATTR InstName MP1
SYMBOL PMOSX 48 -432 R0
SYMATTR InstName MP2
SYMBOL PMOSX 48 -160 R0
SYMATTR InstName MP3
SYMBOL PMOSX 400 -304 R0
SYMATTR InstName MP4
SYMBOL PMOSX 288 16 R0
SYMATTR InstName MP5
SYMBOL NMOSX -64 304 R0
SYMATTR InstName MN1
SYMBOL NMOSX 80 544 R0
SYMATTR InstName MN2
SYMBOL NMOSX 304 544 R0
SYMATTR InstName MN3
SYMBOL NMOSX 192 720 R0
SYMATTR InstName MN4
SYMBOL NMOSX -208 592 R0
SYMATTR InstName MN5
SYMBOL NMOSX -1008 -352 R0
SYMATTR InstName MNB
SYMBOL PMOSX -1008 -544 R0
SYMATTR InstName MPB
SYMBOL NMOSX -1008 176 R0
SYMATTR InstName MNA
SYMBOL PMOSX -1008 -16 R0
SYMATTR InstName MPA
SYMBOL voltage -1360 464 R90
WINDOW 0 -32 56 VBottom 2
WINDOW 3 32 56 VTop 2
WINDOW 123 0 0 Left 0
WINDOW 39 0 0 Left 0
SYMATTR InstName VDD
SYMATTR Value 5V
SYMBOL NMOSX 1440 -256 R270
WINDOW 0 52 15 VTop 2
SYMATTR InstName MP10
SYMBOL PMOSX 1472 -320 R90
WINDOW 0 50 17 VTop 2
SYMATTR InstName MN10
SYMBOL NMOSX 1440 480 R270
WINDOW 0 52 15 VTop 2
SYMATTR InstName MP11
SYMBOL PMOSX 1472 416 R90
WINDOW 0 50 17 VTop 2
SYMATTR InstName MN11
SYMBOL NMOSX -608 -352 R0
SYMATTR InstName MNEn1
SYMBOL PMOSX -608 -544 R0
SYMATTR InstName MPEn1
SYMBOL NMOSX -608 176 R0
SYMATTR InstName MNEn2
SYMBOL PMOSX -608 -16 R0
SYMATTR InstName MPEn2
SYMBOL voltage -1360 -512 R90
WINDOW 0 -32 56 VBottom 2
WINDOW 3 32 56 VTop 2
WINDOW 123 0 0 Left 0
WINDOW 39 0 0 Left 0
SYMATTR InstName VinA
SYMATTR Value 0V
SYMBOL voltage -1360 -368 R90
WINDOW 0 -32 56 VBottom 2
WINDOW 3 32 56 VTop 2
WINDOW 123 0 0 Left 0
WINDOW 39 0 0 Left 0
SYMATTR InstName VinB
SYMATTR Value 5V
SYMBOL voltage -1360 -240 R90
WINDOW 0 -32 56 VBottom 2
WINDOW 3 32 56 VTop 2
WINDOW 123 0 0 Left 0
WINDOW 39 0 0 Left 0
SYMATTR InstName VinC
SYMATTR Value 0V
SYMBOL voltage -1360 -96 R90
WINDOW 0 -32 56 VBottom 2
WINDOW 3 32 56 VTop 2
WINDOW 123 0 0 Left 0
WINDOW 39 0 0 Left 0
SYMATTR InstName VinD
SYMATTR Value 0V
SYMBOL voltage -1360 32 R90
WINDOW 0 -32 56 VBottom 2
WINDOW 3 32 56 VTop 2
WINDOW 123 0 0 Left 0
WINDOW 39 0 0 Left 0
SYMATTR InstName VinE
SYMATTR Value 5V
SYMBOL voltage -1360 176 R90
WINDOW 0 -32 56 VBottom 2
WINDOW 3 32 56 VTop 2
WINDOW 123 0 0 Left 0
WINDOW 39 0 0 Left 0
SYMATTR InstName VEn1
SYMATTR Value 5V
SYMBOL voltage -1360 304 R90
WINDOW 0 -32 56 VBottom 2
WINDOW 3 32 56 VTop 2
WINDOW 123 0 0 Left 0
WINDOW 39 0 0 Left 0
SYMATTR InstName VEn2
SYMATTR Value 5V
SYMBOL NMOSX 832 -384 R270
WINDOW 0 -16 17 VTop 2
SYMATTR InstName MN6
SYMBOL NMOSX 832 -96 R270
WINDOW 0 -17 18 VTop 2
SYMATTR InstName MN7
SYMBOL PMOSX 864 -448 R90
WINDOW 0 -15 16 VTop 2
SYMATTR InstName MP6
SYMBOL PMOSX 864 -160 R90
WINDOW 0 -16 15 VTop 2
SYMATTR InstName MP7
SYMBOL NMOSX -1008 672 R0
SYMATTR InstName MNE
SYMBOL PMOSX -1008 480 R0
SYMATTR InstName MPE
SYMBOL NMOSX -608 672 R0
SYMATTR InstName MNF1
SYMBOL PMOSX -608 480 R0
SYMATTR InstName MPF1
TEXT -72 -848 Left 6 ;F1
TEXT 816 -816 Left 6 ;F2
TEXT -856 -784 Left 5 ;NOT
TEXT -1528 -768 Left 6 ;Inputs
TEXT -1552 -680 Left 3 ;Exemplo \nABCDE=01001\nEnable1/Enable2 = 1
TEXT -1736 600 Left 2 !.dc VinA 0 5 .1m VinC 0 5 .1m VinD 0 5 .1m
TEXT 1344 -800 Left 5 ;Tri-state
