Version 4
SHEET 1 1140 680
WIRE 896 -128 848 -128
WIRE 304 -96 272 -96
WIRE 448 16 448 0
WIRE 448 16 400 16
WIRE 448 48 448 16
WIRE 896 64 880 64
WIRE 304 96 288 96
WIRE 400 96 400 16
WIRE 400 96 304 96
WIRE 304 128 288 128
WIRE 400 128 304 128
WIRE 176 304 176 256
WIRE 240 304 240 256
WIRE 400 320 400 128
WIRE 448 320 448 304
WIRE 448 320 400 320
WIRE 448 352 448 320
FLAG 704 176 0
FLAG 784 176 VDD
FLAG 304 96 Res1
FLAG 304 128 Res2
FLAG 304 -96 ResF1
FLAG 896 -128 ResF2
FLAG 896 64 Res3St
FLAG 704 48 0
FLAG 704 80 0
FLAG -256 -112 0
FLAG -176 -112 A
IOPIN -176 -112 Out
FLAG -256 16 0
FLAG -176 16 B
IOPIN -176 16 Out
FLAG -256 144 0
FLAG -176 144 C
IOPIN -176 144 Out
FLAG -256 272 0
FLAG -176 272 D
IOPIN -176 272 Out
FLAG -256 400 0
FLAG -176 400 E
IOPIN -176 400 Out
FLAG 128 -160 A
FLAG 128 -128 B
FLAG 128 -96 C
FLAG 128 -64 D
FLAG 128 -32 E
FLAG 128 96 A
FLAG 128 128 B
FLAG 128 160 C
FLAG 128 192 D
FLAG 128 224 E
FLAG 752 -144 E
FLAG 752 -112 ResF1
FLAG -720 -112 0
FLAG -720 32 0
FLAG 448 -80 VDD
FLAG 448 128 0
FLAG 448 224 VDD
FLAG 448 432 0
FLAG 176 304 En1
FLAG 240 304 En2
FLAG -640 -112 En1
FLAG -640 32 En2
SYMBOL voltage 800 176 R90
WINDOW 0 -32 56 VBottom 2
WINDOW 3 32 56 VTop 2
SYMATTR InstName V1
SYMATTR Value 5V
SYMBOL f1 192 -96 R0
SYMATTR InstName F1
SYMBOL Tri-State 784 64 R0
WINDOW 0 8 -40 Bottom 2
SYMATTR InstName Tri-state
SYMBOL F2 800 -128 R0
SYMATTR InstName F2
SYMBOL voltage -160 -112 R90
WINDOW 0 -32 56 VBottom 2
WINDOW 3 32 56 VTop 2
WINDOW 123 0 0 Left 0
WINDOW 39 0 0 Left 0
SYMATTR InstName VA
SYMATTR Value PULSE(0V 5V 1m 1p 1p 0.5s 1s 8)
SYMBOL voltage -160 16 R90
WINDOW 0 -32 56 VBottom 2
WINDOW 3 32 56 VTop 2
WINDOW 123 0 0 Left 0
WINDOW 39 0 0 Left 0
SYMATTR InstName VB
SYMATTR Value PULSE(0V 5V 1m 1p 1p 0.25s 0.5s 16)
SYMBOL voltage -160 144 R90
WINDOW 0 -32 56 VBottom 2
WINDOW 3 32 56 VTop 2
WINDOW 123 0 0 Left 0
WINDOW 39 0 0 Left 0
SYMATTR InstName VC
SYMATTR Value PULSE(0V 5V 1m 1p 1p 0.125s 0.25s 32)
SYMBOL voltage -160 272 R90
WINDOW 0 -32 56 VBottom 2
WINDOW 3 32 56 VTop 2
WINDOW 123 0 0 Left 0
WINDOW 39 0 0 Left 0
SYMATTR InstName VD
SYMATTR Value PULSE(0V 5V 1m 1p 1p 0.0625s 0.125s 64)
SYMBOL voltage -160 400 R90
WINDOW 0 -32 56 VBottom 2
WINDOW 3 32 56 VTop 2
WINDOW 123 0 0 Left 0
WINDOW 39 0 0 Left 0
SYMATTR InstName VE
SYMATTR Value PULSE(0V 5V 1m 1p 1p 0.03125s 0.0625s 128)
SYMBOL Circuito 176 192 R0
SYMATTR InstName Circuito
SYMBOL res 432 -96 R0
SYMATTR InstName R1
SYMATTR Value 1e6
SYMBOL res 432 32 R0
SYMATTR InstName R2
SYMATTR Value 1e6
SYMBOL res 432 208 R0
SYMATTR InstName R3
SYMATTR Value 1e6
SYMBOL res 432 336 R0
SYMATTR InstName R4
SYMATTR Value 1e6
SYMBOL voltage -624 -112 R90
WINDOW 0 -32 56 VBottom 2
WINDOW 3 32 56 VTop 2
WINDOW 123 0 0 Left 0
WINDOW 39 0 0 Left 0
SYMATTR InstName V2
SYMATTR Value PULSE(0V 5V 1m 1p 1p 1s 2s 4)
SYMBOL voltage -624 32 R90
WINDOW 0 -32 56 VBottom 2
WINDOW 3 32 56 VTop 2
WINDOW 123 0 0 Left 0
WINDOW 39 0 0 Left 0
SYMATTR InstName V3
SYMATTR Value PULSE(0V 5V 1m 1p 1p 2s 4s 2)
TEXT 816 216 Left 2 !.tran 4s
