Version 4
SHEET 1 1048 680
WIRE 304 -96 272 -96
WIRE 624 -80 576 -80
WIRE 304 96 288 96
WIRE 624 112 608 112
WIRE 304 128 288 128
WIRE 176 304 176 256
WIRE 240 304 240 256
FLAG 432 224 0
FLAG 512 224 VDD
IOPIN 512 224 Out
FLAG 304 96 Res1
IOPIN 304 96 Out
FLAG 304 128 Res2
IOPIN 304 128 Out
FLAG 176 304 VDD
IOPIN 176 304 In
FLAG 128 -128 VDD
IOPIN 128 -128 In
FLAG 128 -96 VDD
IOPIN 128 -96 In
FLAG 128 -64 VDD
IOPIN 128 -64 In
FLAG 128 -32 0
FLAG 304 -96 ResF1
IOPIN 304 -96 Out
FLAG 480 -96 VDD
IOPIN 480 -96 In
FLAG 624 -80 ResF2
IOPIN 624 -80 Out
FLAG 128 -160 0
FLAG 480 -64 0
FLAG 624 112 Res3St
IOPIN 624 112 Out
FLAG 432 96 0
FLAG 432 128 0
FLAG 240 304 VDD
IOPIN 240 304 In
FLAG 128 160 0
FLAG 128 224 0
FLAG 128 96 0
FLAG 128 128 VDD
IOPIN 128 128 In
FLAG 128 192 VDD
IOPIN 128 192 In
SYMBOL voltage 528 224 R90
WINDOW 0 -32 56 VBottom 2
WINDOW 3 32 56 VTop 2
SYMATTR InstName V1
SYMATTR Value 5V
SYMBOL Circuito 176 192 R0
SYMATTR InstName Circuito
SYMBOL f1 192 -96 R0
SYMATTR InstName F1
SYMBOL Tri-State 512 112 R0
WINDOW 0 8 -40 Bottom 2
SYMATTR InstName Tri-state
SYMBOL F2 528 -80 R0
SYMATTR InstName F2
TEXT 544 264 Left 2 !.tran 1s
