Version 4
SHEET 1 880 680
WIRE 96 -80 96 -112
WIRE 32 144 -32 144
WIRE 224 144 160 144
WIRE 96 272 96 256
FLAG 96 272 Enable
IOPIN 96 272 In
FLAG -32 144 in
IOPIN -32 144 BiDir
FLAG 224 144 out
IOPIN 224 144 BiDir
FLAG 96 -112 Enable
IOPIN 96 -112 In
SYMBOL NMOSX 80 176 R270
WINDOW 0 52 15 VTop 2
SYMATTR InstName MP1
SYMBOL PMOSX 112 112 R90
WINDOW 0 50 17 VTop 2
SYMATTR InstName MN1
SYMBOL not 96 -32 R90
SYMATTR InstName not
