Version 4
SHEET 1 880 680
WIRE -16 -64 -48 -64
WIRE 96 32 96 -64
WIRE 32 144 -32 144
WIRE 224 144 160 144
WIRE 96 272 96 256
FLAG 96 272 Enable
IOPIN 96 272 In
FLAG -32 144 in
IOPIN -32 144 In
FLAG 224 144 out
IOPIN 224 144 Out
FLAG -48 -64 Enable
IOPIN -48 -64 In
SYMBOL NMOSX 80 176 R270
WINDOW 0 52 15 VTop 2
SYMATTR InstName MP1
SYMBOL PMOSX 112 112 R90
WINDOW 0 50 17 VTop 2
SYMATTR InstName MN1
SYMBOL not 32 -64 R0
SYMATTR InstName not
