Version 4
SHEET 1 3140 2108
WIRE -32 -560 -32 -608
WIRE -32 -560 -256 -560
WIRE 224 -560 -32 -560
WIRE 848 -544 848 -576
WIRE 848 -544 768 -544
WIRE 912 -544 848 -544
WIRE -1344 -512 -1376 -512
WIRE 224 -496 224 -560
WIRE 224 -496 80 -496
WIRE 432 -496 224 -496
WIRE 80 -480 80 -496
WIRE -1088 -384 -1120 -384
WIRE -688 -384 -720 -384
WIRE -1344 -368 -1376 -368
WIRE 432 -352 432 -496
WIRE -256 -320 -256 -560
WIRE -1120 -288 -1120 -384
WIRE -1120 -288 -1152 -288
WIRE -976 -288 -976 -320
WIRE -928 -288 -976 -288
WIRE -720 -288 -720 -384
WIRE -720 -288 -752 -288
WIRE -576 -288 -576 -320
WIRE -528 -288 -576 -288
WIRE 80 -288 80 -352
WIRE 912 -288 768 -288
WIRE 1104 -288 912 -288
WIRE 1392 -288 1328 -288
WIRE 1584 -288 1520 -288
WIRE -976 -256 -976 -288
WIRE -576 -256 -576 -288
WIRE -1344 -240 -1376 -240
WIRE 80 -208 80 -288
WIRE -1120 -192 -1120 -288
WIRE -1088 -192 -1120 -192
WIRE -720 -192 -720 -288
WIRE -688 -192 -720 -192
WIRE 1456 -160 1456 -176
WIRE -1344 -96 -1376 -96
WIRE -976 -96 -976 -128
WIRE -576 -96 -576 -128
WIRE 80 -64 80 -80
WIRE 320 -64 80 -64
WIRE 432 -64 432 -224
WIRE 432 -64 320 -64
WIRE 320 -32 320 -64
WIRE 848 -32 768 -32
WIRE 912 -32 848 -32
WIRE -1344 32 -1376 32
WIRE 848 32 848 -32
WIRE -256 112 -256 -192
WIRE -32 112 -256 112
WIRE 320 112 320 96
WIRE 320 112 -32 112
WIRE -1088 144 -1120 144
WIRE -688 144 -720 144
WIRE -1344 176 -1376 176
WIRE -32 208 -32 112
WIRE 368 208 -32 208
WIRE -1120 240 -1120 144
WIRE -1120 240 -1152 240
WIRE -976 240 -976 208
WIRE -928 240 -976 240
WIRE -720 240 -720 144
WIRE -720 240 -752 240
WIRE -576 240 -576 208
WIRE -528 240 -576 240
WIRE -32 256 -32 208
WIRE -976 272 -976 240
WIRE -576 272 -576 240
WIRE -1344 304 -1376 304
WIRE -1120 336 -1120 240
WIRE -1088 336 -1120 336
WIRE -720 336 -720 240
WIRE -688 336 -720 336
WIRE 1456 336 1456 304
WIRE -976 432 -976 400
WIRE -576 432 -576 400
WIRE -32 432 -32 384
WIRE -32 432 -176 432
WIRE 224 432 -32 432
WIRE 1392 448 1328 448
WIRE 1584 448 1520 448
WIRE 224 464 224 432
WIRE 224 464 112 464
WIRE 336 464 224 464
WIRE 112 496 112 464
WIRE 336 496 336 464
WIRE -176 544 -176 432
WIRE 1456 576 1456 560
WIRE 112 672 112 624
WIRE 224 672 112 672
WIRE 336 672 336 624
WIRE 336 672 224 672
WIRE -176 816 -176 672
WIRE -32 816 -176 816
WIRE 224 816 224 800
WIRE 224 816 -32 816
WIRE -32 848 -32 816
FLAG -368 -256 A
FLAG -32 -144 C
FLAG 320 -288 D
FLAG 208 32 E
FLAG -144 320 A
FLAG -288 608 E
FLAG 224 560 C
FLAG 112 736 D
FLAG -32 848 0
FLAG 368 208 F1_Res
FLAG -32 -608 VDD
FLAG -32 -416 _B
FLAG 0 560 _B
FLAG 656 -480 A
FLAG 656 -224 A
FLAG 1024 -480 _A
FLAG 1024 -352 B
FLAG 1024 -224 _A
FLAG 1024 -96 _B
FLAG 656 -96 B
FLAG 656 -352 _B
FLAG 848 32 0
FLAG 1104 -288 F2_Res
FLAG 848 -576 VDD
FLAG -1152 -288 B
FLAG -928 -288 _B
FLAG -976 -96 0
FLAG -928 240 _A
FLAG -976 432 0
FLAG -688 624 0
FLAG -608 624 VDD
FLAG -976 -448 VDD
FLAG -976 80 VDD
FLAG -1344 -512 A
FLAG 1328 -288 F1_Res
FLAG 1584 -288 F1
FLAG 1456 576 Enable2
FLAG 1328 448 F2_Res
FLAG 1584 448 F2
FLAG 1456 304 _Enable2
FLAG -752 -288 Enable1
FLAG -528 -288 _Enable1
FLAG -576 -96 0
FLAG -752 240 Enable2
FLAG -528 240 _Enable2
FLAG -576 432 0
FLAG -576 -448 VDD
FLAG -576 80 VDD
FLAG 1456 -160 Enable1
FLAG 1456 -400 _Enable1
FLAG 80 -288 n1
FLAG 768 -416 n2
FLAG 912 -416 n3
FLAG 912 -160 n5
FLAG 768 -160 n4
FLAG -1456 -512 0
FLAG -1344 -368 B
FLAG -1456 -368 0
FLAG -1344 -240 C
FLAG -1456 -240 0
FLAG -1344 -96 D
FLAG -1456 -96 0
FLAG -1344 32 E
FLAG -1456 32 0
FLAG -1344 176 Enable1
FLAG -1456 176 0
FLAG -1344 304 Enable2
FLAG -1456 304 0
FLAG -1152 240 A
FLAG 320 -64 n6
FLAG -32 432 n7
FLAG 224 672 n8
DATAFLAG 2784 -656 "V(_a)-V(vdd)"
DATAFLAG 2784 -592 "V(_a)"
DATAFLAG 2784 -480 "V(_b)-V(vdd)"
DATAFLAG 2816 -416 "V(_b)"
DATAFLAG 2800 -304 "V(_enable1)-V(vdd)"
DATAFLAG 2848 -240 "V(_enable1)"
DATAFLAG 2800 -128 "V(_enable2)-V(vdd)"
DATAFLAG 2832 -64 "V(_enable2)"
DATAFLAG 2816 48 "V(f1_res)-V(vdd)"
DATAFLAG 2768 112 "V(f1_res)-V(n7)"
DATAFLAG 2768 224 "V(n1)-V(vdd)"
DATAFLAG 2816 288 "V(n7)-V(n8)"
DATAFLAG 2768 400 "V(n6)-V(n1)"
DATAFLAG 2800 464 "V(n7)-V(n8)"
DATAFLAG 2768 576 "V(n6)-V(vdd)"
DATAFLAG 2816 640 "V(n8)"
DATAFLAG 2816 752 "V(f1_res)-V(n6)"
DATAFLAG 2816 816 "V(n7)"
DATAFLAG 2768 928 "V(n2)-V(vdd)"
DATAFLAG 2768 992 "V(f2_res)-V(n4)"
DATAFLAG 2816 1104 "V(n3)-V(vdd)"
DATAFLAG 2816 1168 "V(n4)"
DATAFLAG 2816 1280 "V(f2_res)-V(n3)"
DATAFLAG 2816 1344 "V(f2_res)-V(n5)"
DATAFLAG 2752 1456 "V(f2_res)-V(n2)"
DATAFLAG 2800 1520 "V(n5)"
DATAFLAG 2832 1632 "V(f1_res)-V(f1)"
DATAFLAG 2832 1696 "V(f1_res)-V(f1)"
DATAFLAG 2768 1808 "V(f2_res)-V(f2)"
DATAFLAG 2768 1872 "V(f2_res)-V(f2)"
DATAFLAG 2032 -656 "V(a)-V(vdd)"
DATAFLAG 2032 -592 "V(a)"
DATAFLAG 2032 -480 "V(b)-V(vdd)"
DATAFLAG 2032 -416 "V(b)"
DATAFLAG 2048 -304 "V(enable1)-V(vdd)"
DATAFLAG 2048 -240 "V(enable1)"
DATAFLAG 2048 -128 "V(enable2)-V(vdd)"
DATAFLAG 2048 -64 "V(enable2)"
DATAFLAG 2032 48 "V(a)-V(vdd)"
DATAFLAG 2032 112 "V(a)"
DATAFLAG 2048 224 "V(_b)-V(vdd)"
DATAFLAG 2064 288 "V(_b)"
DATAFLAG 2032 400 "V(c)-V(n1)"
DATAFLAG 2032 464 "V(c)"
DATAFLAG 2032 576 "V(d)-V(vdd)"
DATAFLAG 2032 640 "V(d)"
DATAFLAG 2032 752 "V(e)-V(n6)"
DATAFLAG 2032 816 "V(e)"
DATAFLAG 2032 928 "V(a)-V(vdd)"
DATAFLAG 2032 992 "V(a)"
DATAFLAG 2032 1104 "V(_a)-V(vdd)"
DATAFLAG 2032 1168 "V(_a)"
DATAFLAG 2032 1280 "V(b)-V(vdd)"
DATAFLAG 2032 1344 "V(b)"
DATAFLAG 2032 1456 "V(_b)-V(vdd)"
DATAFLAG 2064 1520 "V(_b)"
DATAFLAG 2032 1632 "V(_enable1)-V(f1)"
DATAFLAG 2032 1696 "V(enable1)-V(f1)"
DATAFLAG 2032 1808 "V(_enable2)-V(f2)"
DATAFLAG 2032 1872 "V(enable2)-V(f2)"
DATAFLAG 3088 -656 "V(f1)"
DATAFLAG 3088 -576 "V(f2)"
SYMBOL PMOSX -288 -272 R0
SYMATTR InstName MP1
SYMBOL PMOSX 48 -432 R0
SYMATTR InstName MP2
SYMBOL PMOSX 48 -160 R0
SYMATTR InstName MP3
SYMBOL PMOSX 400 -304 R0
SYMATTR InstName MP4
SYMBOL PMOSX 288 16 R0
SYMATTR InstName MP5
SYMBOL NMOSX -64 304 R0
SYMATTR InstName MN1
SYMBOL NMOSX 80 544 R0
SYMATTR InstName MN2
SYMBOL NMOSX 304 544 R0
SYMATTR InstName MN3
SYMBOL NMOSX 192 720 R0
SYMATTR InstName MN4
SYMBOL NMOSX -208 592 R0
SYMATTR InstName MN5
SYMBOL PMOSX 736 -496 R0
SYMATTR InstName MP6
SYMBOL PMOSX 944 -464 R180
SYMATTR InstName MP7
SYMBOL PMOSX 944 -336 R180
SYMATTR InstName MP8
SYMBOL PMOSX 736 -368 R0
SYMATTR InstName MP9
SYMBOL NMOSX 736 -240 R0
SYMATTR InstName MN6
SYMBOL NMOSX 736 -112 R0
SYMATTR InstName MN7
SYMBOL NMOSX 944 -208 R180
SYMATTR InstName MN8
SYMBOL NMOSX 944 -80 R180
SYMATTR InstName MN9
SYMBOL NMOSX -1008 -208 R0
SYMATTR InstName MNB
SYMBOL PMOSX -1008 -400 R0
SYMATTR InstName MPB
SYMBOL NMOSX -1008 320 R0
SYMATTR InstName MNA
SYMBOL PMOSX -1008 128 R0
SYMATTR InstName MPA
SYMBOL voltage -592 624 R90
WINDOW 0 -32 56 VBottom 2
WINDOW 3 32 56 VTop 2
WINDOW 123 0 0 Left 0
WINDOW 39 0 0 Left 0
SYMATTR InstName VDD
SYMATTR Value 5V
SYMBOL NMOSX 1440 -256 R270
WINDOW 0 52 15 VTop 2
SYMATTR InstName MP10
SYMBOL PMOSX 1472 -320 R90
WINDOW 0 50 17 VTop 2
SYMATTR InstName MN10
SYMBOL NMOSX 1440 480 R270
WINDOW 0 52 15 VTop 2
SYMATTR InstName MP11
SYMBOL PMOSX 1472 416 R90
WINDOW 0 50 17 VTop 2
SYMATTR InstName MN11
SYMBOL NMOSX -608 -208 R0
SYMATTR InstName MNEn1
SYMBOL PMOSX -608 -400 R0
SYMATTR InstName MPEn1
SYMBOL NMOSX -608 320 R0
SYMATTR InstName MNEn2
SYMBOL PMOSX -608 128 R0
SYMATTR InstName MPEn2
SYMBOL voltage -1360 -512 R90
WINDOW 0 -32 56 VBottom 2
WINDOW 3 32 56 VTop 2
WINDOW 123 0 0 Left 0
WINDOW 39 0 0 Left 0
SYMATTR InstName VinA
SYMATTR Value 0V
SYMBOL voltage -1360 -368 R90
WINDOW 0 -32 56 VBottom 2
WINDOW 3 32 56 VTop 2
WINDOW 123 0 0 Left 0
WINDOW 39 0 0 Left 0
SYMATTR InstName VinB
SYMATTR Value 5V
SYMBOL voltage -1360 -240 R90
WINDOW 0 -32 56 VBottom 2
WINDOW 3 32 56 VTop 2
WINDOW 123 0 0 Left 0
WINDOW 39 0 0 Left 0
SYMATTR InstName VinC
SYMATTR Value 0V
SYMBOL voltage -1360 -96 R90
WINDOW 0 -32 56 VBottom 2
WINDOW 3 32 56 VTop 2
WINDOW 123 0 0 Left 0
WINDOW 39 0 0 Left 0
SYMATTR InstName VinD
SYMATTR Value 0V
SYMBOL voltage -1360 32 R90
WINDOW 0 -32 56 VBottom 2
WINDOW 3 32 56 VTop 2
WINDOW 123 0 0 Left 0
WINDOW 39 0 0 Left 0
SYMATTR InstName VinE
SYMATTR Value 5V
SYMBOL voltage -1360 176 R90
WINDOW 0 -32 56 VBottom 2
WINDOW 3 32 56 VTop 2
WINDOW 123 0 0 Left 0
WINDOW 39 0 0 Left 0
SYMATTR InstName VEn1
SYMATTR Value 5V
SYMBOL voltage -1360 304 R90
WINDOW 0 -32 56 VBottom 2
WINDOW 3 32 56 VTop 2
WINDOW 123 0 0 Left 0
WINDOW 39 0 0 Left 0
SYMATTR InstName VEn2
SYMATTR Value 5V
TEXT -72 -848 Left 6 ;F1
TEXT 816 -816 Left 6 ;F2
TEXT -856 -784 Left 5 ;NOT
TEXT -1528 -768 Left 6 ;Inputs
TEXT -1552 -680 Left 3 ;Exemplo \nABCDE=01001\nEnable1/Enable2 = 1
TEXT -664 736 Left 2 !.op
TEXT 1856 -672 Left 2 ;VGS-MPA=
TEXT 1856 -608 Left 2 ;VGS-MNA=
TEXT 1856 -496 Left 2 ;VGS-MPB=
TEXT 1856 -432 Left 2 ;VGS-MNB=
TEXT 1856 -320 Left 2 ;VGS-MPEn1=
TEXT 1856 -256 Left 2 ;VGS-MPEn1=
TEXT 1856 -144 Left 2 ;VGS-MPEn2=
TEXT 1856 -80 Left 2 ;VGS-MPEn2=
TEXT 1856 40 Left 2 ;VGS-MP1=
TEXT 1856 104 Left 2 ;VGS-MN1=
TEXT 1856 216 Left 2 ;VGS-MP2=
TEXT 1856 280 Left 2 ;VGS-MN2=
TEXT 1856 392 Left 2 ;VGS-MP3=
TEXT 1856 456 Left 2 ;VGS-MN3=
TEXT 1856 568 Left 2 ;VGS-MP4=
TEXT 1856 632 Left 2 ;VGS-MN4=
TEXT 1856 736 Left 2 ;VGS-MP5=
TEXT 1856 800 Left 2 ;VGS-MN5=
TEXT 1856 912 Left 2 ;VGS-MP6=
TEXT 1856 976 Left 2 ;VGS-MN6=
TEXT 1856 1088 Left 2 ;VGS-MP7=
TEXT 1856 1152 Left 2 ;VGS-MN7=
TEXT 1856 1264 Left 2 ;VGS-MP8=
TEXT 1856 1328 Left 2 ;VGS-MN8=
TEXT 1856 1448 Left 2 ;VGS-MP9=
TEXT 1856 1512 Left 2 ;VGS-MN9=
TEXT 1856 1624 Left 2 ;VGS-MP10=
TEXT 1856 1688 Left 2 ;VGS-MN10=
TEXT 1856 1800 Left 2 ;VGS-MP11=
TEXT 1856 1864 Left 2 ;VGS-MN11=
TEXT 2600 -672 Left 2 ;VDS-MPA=
TEXT 2600 -608 Left 2 ;VDS-MNA=
TEXT 2600 -496 Left 2 ;VDS-MPB=
TEXT 2600 -432 Left 2 ;VDS-MNB=
TEXT 2600 -320 Left 2 ;VDS-MPEn1=
TEXT 2600 -256 Left 2 ;VDS-MPEn1=
TEXT 2600 -144 Left 2 ;VDS-MPEn2=
TEXT 2600 -80 Left 2 ;VDS-MPEn2=
TEXT 2600 40 Left 2 ;VDS-MP1=
TEXT 2600 104 Left 2 ;VDS-MN1=
TEXT 2600 216 Left 2 ;VDS-MP2=
TEXT 2600 280 Left 2 ;VDS-MN2=
TEXT 2600 392 Left 2 ;VDS-MP3=
TEXT 2600 456 Left 2 ;VDS-MN3=
TEXT 2600 568 Left 2 ;VDS-MP4=
TEXT 2600 632 Left 2 ;VDS-MN4=
TEXT 2600 736 Left 2 ;VDS-MP5=
TEXT 2600 800 Left 2 ;VDS-MN5=
TEXT 2600 912 Left 2 ;VDS-MP6=
TEXT 2600 976 Left 2 ;VDS-MN6=
TEXT 2600 1088 Left 2 ;VDS-MP7=
TEXT 2600 1152 Left 2 ;VDS-MN7=
TEXT 2600 1264 Left 2 ;VDS-MP8=
TEXT 2600 1328 Left 2 ;VDS-MN8=
TEXT 2600 1448 Left 2 ;VDS-MP9=
TEXT 2600 1512 Left 2 ;VDS-MN9=
TEXT 2600 1624 Left 2 ;VDS-MP10=
TEXT 2600 1688 Left 2 ;VDS-MN10=
TEXT 2600 1800 Left 2 ;VDS-MP11=
TEXT 2600 1864 Left 2 ;VDS-MN11=
TEXT 2992 -672 Left 2 ;VF1=
TEXT 2992 -592 Left 2 ;VF2=
TEXT 1344 -800 Left 5 ;Tri-state
TEXT 960 872 Left 2 ;Considere aproximação de ~mV a 0V.
TEXT 960 920 Left 2 ;Considere aproximação de ~nV a 0V.
TEXT 960 968 Left 2 ;Considere aproximação de ~uV a 0V.
TEXT 960 1016 Left 2 ;Considere aproximação de ~pV a 0V.
