Version 4
SHEET 1 880 680
WIRE 240 48 240 0
WIRE 240 48 160 48
WIRE 336 48 240 48
WIRE 336 304 160 304
WIRE 592 304 336 304
WIRE -352 352 -384 352
WIRE -208 352 -240 352
WIRE -352 448 -384 448
WIRE -208 448 -240 448
WIRE 256 560 160 560
WIRE 336 560 256 560
WIRE 256 592 256 560
FLAG 256 592 0
FLAG 592 304 out
IOPIN 592 304 Out
FLAG -384 352 A
IOPIN -384 352 In
FLAG -384 448 B
IOPIN -384 448 In
FLAG -208 352 !A
IOPIN -208 352 Out
FLAG -208 448 !B
IOPIN -208 448 Out
FLAG 48 112 A
FLAG 48 240 B
FLAG 48 368 A
FLAG 48 496 !B
FLAG 448 112 !A
FLAG 448 240 !B
FLAG 448 368 !A
FLAG 448 496 B
FLAG 240 -80 0
SYMBOL PMOSX 128 96 R0
SYMATTR InstName MP1
SYMBOL PMOSX 128 224 R0
SYMATTR InstName MP2
SYMBOL PMOSX 368 128 R180
SYMATTR InstName MP3
SYMBOL PMOSX 368 256 R180
SYMATTR InstName MP4
SYMBOL NMOSX 128 352 R0
SYMATTR InstName MN1
SYMBOL NMOSX 128 480 R0
SYMATTR InstName MN4
SYMBOL NMOSX 368 384 R180
SYMATTR InstName MN3
SYMBOL NMOSX 368 512 R180
SYMATTR InstName MN2
SYMBOL not -304 352 R0
SYMATTR InstName not1
SYMBOL not -304 448 R0
SYMATTR InstName not2
SYMBOL voltage 240 16 R180
WINDOW 0 24 96 Left 2
WINDOW 3 24 16 Left 2
SYMATTR InstName V1
SYMATTR Value 5V
