Version 4
SHEET 1 880 692
WIRE 240 96 240 64
WIRE 240 96 160 96
WIRE 304 96 240 96
WIRE -176 272 -192 272
WIRE -48 272 -64 272
WIRE -176 352 -192 352
WIRE -48 352 -64 352
WIRE 304 352 160 352
WIRE 496 352 304 352
WIRE 240 608 160 608
WIRE 304 608 240 608
WIRE 240 672 240 608
FLAG 48 160 A
FLAG 48 416 A
FLAG 416 160 _A
FLAG 416 288 B
FLAG 416 416 _A
FLAG 416 544 _B
FLAG 48 544 B
FLAG 48 288 _B
FLAG 240 672 0
FLAG 496 352 out
IOPIN 496 352 Out
FLAG -192 272 A
IOPIN -192 272 In
FLAG -192 352 B
IOPIN -192 352 In
FLAG -48 272 _A
FLAG -48 352 _B
FLAG 240 64 VDD
SYMBOL PMOSX 128 144 R0
SYMATTR InstName MP2
SYMBOL PMOSX 336 176 R180
SYMATTR InstName MP1
SYMBOL PMOSX 336 304 R180
SYMATTR InstName MP3
SYMBOL PMOSX 128 272 R0
SYMATTR InstName MP4
SYMBOL NMOSX 128 400 R0
SYMATTR InstName MN2
SYMBOL NMOSX 128 528 R0
SYMATTR InstName MN4
SYMBOL NMOSX 336 432 R180
SYMATTR InstName MN3
SYMBOL NMOSX 336 560 R180
SYMATTR InstName MN1
SYMBOL not -128 272 R0
SYMATTR InstName not1
SYMBOL not -128 352 R0
SYMATTR InstName not2
