Version 4
SHEET 1 1024 692
WIRE 144 160 128 160
WIRE 208 160 144 160
WIRE -176 272 -192 272
WIRE -48 272 -64 272
WIRE 208 288 208 160
WIRE 256 288 208 288
WIRE -176 352 -192 352
WIRE -48 352 -64 352
WIRE 144 448 128 448
WIRE 208 448 208 288
WIRE 208 448 144 448
FLAG -192 272 A
IOPIN -192 272 In
FLAG -192 352 B
IOPIN -192 352 In
FLAG -48 272 _A
FLAG -48 352 _B
FLAG 256 288 out
IOPIN 256 288 Out
FLAG 16 160 A
FLAG 16 448 _A
FLAG 80 48 B
FLAG 80 272 _B
FLAG 80 336 _B
FLAG 80 560 B
SYMBOL not -128 272 R0
SYMATTR InstName not1
SYMBOL not -128 352 R0
SYMATTR InstName not2
SYMBOL NMOSX 64 192 R270
WINDOW 0 -16 17 VTop 2
SYMATTR InstName MN1
SYMBOL NMOSX 64 480 R270
WINDOW 0 -17 18 VTop 2
SYMATTR InstName MN2
SYMBOL PMOSX 96 128 R90
WINDOW 0 -15 16 VTop 2
SYMATTR InstName MP1
SYMBOL PMOSX 96 416 R90
WINDOW 0 -16 15 VTop 2
SYMATTR InstName MP2
